@<TRIPOS>MOLECULE
ANX
   11    10     1     0     0
SMALL
resp


@<TRIPOS>ATOM
      1 N            4.7510     6.6780    -2.0370 N          8 ANX      -0.4756684619
      2 CA           3.7900     5.9340    -2.8310 CT         8 ANX      -0.0199859143
      3 C            2.4200     6.5950    -2.7910 C          8 ANX       0.7097097183
      4 O            2.3130     7.7950    -2.5580 O          8 ANX      -0.5865484413
      5 CB           3.7160     4.4320    -2.4000 CT         8 ANX      -0.4622010646
      6 CG           3.0170     4.1110    -1.0640 C          8 ANX       0.6529086129
      7 OD1          2.2360     4.8850    -0.5360 O          8 ANX      -0.5591974252
      8 H            4.7990     6.5220    -1.0700 H          8 ANX       0.2768047379
      9 HA           4.1390     5.9740    -3.8530 H1         8 ANX       0.1400602356
     10 HB2          3.2240     3.8550    -3.1630 HC         8 ANX       0.1573087087
     11 HB3          4.7260     4.0850    -2.3150 HC         8 ANX       0.1573087087
@<TRIPOS>BOND
     1     1     2 1   
     2     1     8 1   
     3     2     3 1   
     4     2     5 1   
     5     2     9 1   
     6     3     4 1   
     7     5     6 1   
     8     5    10 1   
     9     5    11 1   
    10     6     7 1   
@<TRIPOS>SUBSTRUCTURE
     1 ANX         1 TEMP              0 ****  ****    0 ROOT


