@<TRIPOS>MOLECULE
GLU
   14    13     1     0     0
SMALL
resp


@<TRIPOS>ATOM
      1 N            2.9870     2.7580     4.2610 N          7 GLX      -0.2325308953
      2 CA           1.9450     3.6820     3.8170 CT         7 GLX      -0.4244643027
      3 C            0.6600     3.1620     4.4220 C          7 GLX       0.6951245923
      4 O            0.6790     2.1120     5.0450 O          7 GLX      -0.5613999108
      5 CB           1.8100     3.7070     2.2450 CT         7 GLX       0.3373668799
      6 CG           2.0020     2.2830     1.6590 CT         7 GLX      -0.5965072668
      7 CD           2.0640     2.0610     0.1480 C          7 GLX       0.7386239858
      8 OE1          2.2370     2.9830    -0.6270 O          7 GLX      -0.6028310850
      9 H            2.8250     1.8220     3.9910 H          7 GLX       0.2228979341
     10 HA           2.0930     4.7100     4.1850 H1         7 GLX       0.1339352772
     11 HB2          0.8260     4.0970     1.9150 HC         7 GLX      -0.0213054911
     12 HB3          2.5880     4.3740     1.8200 HC         7 GLX      -0.0213054911
     13 HG2          3.0470     2.0620     1.9190 HC         7 GLX       0.1597807710
     14 HG3          1.3230     1.5780     2.1880 HC         7 GLX       0.1597807710
@<TRIPOS>BOND
     1     1     2 1   
     2     1     9 1   
     3     2     3 1   
     4     2     5 1   
     5     2    10 1   
     6     3     4 1   
     7     5     6 1   
     8     5    11 1   
     9     5    12 1   
    10     6     7 1   
    11     6    13 1   
    12     6    14 1   
    13     7     8 1   
@<TRIPOS>SUBSTRUCTURE
     1 GLX         1 TEMP              0 ****  ****    0 ROOT
